<?xml version="1.0" encoding="UTF-8"?>

<!-- generated on 2025-05-29 03:14:54 by Eclipse SUMO netedit Version 1.23.1
-->

<routes xmlns:xsi="http://www.w3.org/2001/XMLSchema-instance" xsi:noNamespaceSchemaLocation="http://sumo.dlr.de/xsd/routes_file.xsd">
    <!-- VTypes -->
    <vType id="DEFAULT_BIKETYPE" vClass="bicycle" lcStrategic="0.5" lcTurnAlignmentDistance="20.00" carFollowModel="IDM" accel="1.20" decel="3.0" emergencyDecel="7.00"/>
    <vType id="Emergency" vClass="emergency" guiShape="emergency"/>
    <vType id="Freight" length="6.00" vClass="hov" guiShape="truck" height="1.60"/>
    <vType id="GovernmentCars" vClass="vip" guiShape="passenger/wagon"/>
    <vType id="Taxis" vClass="taxi" guiShape="passenger/sedan" color="blue"/>
    <vType id="Tesla" length="6.00" maxSpeed="5.60" vClass="evehicle" emissionClass="HBEFA4/PC_petrol_Euro-4"/>
    <vType id="t_0" vClass="scooter" lcStrategic="0.5" lcTurnAlignmentDistance="20.00" carFollowModel="IDM" accel="1.20" decel="3.0" emergencyDecel="7.00"/>
    <vType id="t_1"/>
    <vType id="t_2"/>
    <!-- Vehicles, persons and containers (sorted by depart) -->
    <flow id="Scooter" type="t_0" begin="0.00" departLane="1" color="58,58,58" from="E0" to="E0" end="3600.00" vehsPerHour="1800"/>
    <flow id="f_0" type="DEFAULT_BIKETYPE" begin="0.00" from="E0" to="E0" end="3600.00" vehsPerHour="1800"/>
    <flow id="f_1" type="GovernmentCars" begin="0.00" departLane="2" color="black" from="E0" to="E0" end="3600.00" vehsPerHour="1800"/>
    <flow id="f_2" type="Freight" begin="0.00" departLane="5" color="grey" from="E0" to="E0" end="3600.00" vehsPerHour="1800"/>
    <flow id="f_3" type="Tesla" begin="0.00" departLane="4" color="blue" from="E0" to="E0" end="3600.00" vehsPerHour="1800"/>
    <flow id="f_4" type="Tesla" begin="0.00" departLane="2" color="green" from="E0" to="E0" end="3600.00" vehsPerHour="1800"/>
    <flow id="f_5" type="Taxis" begin="0.00" departLane="1" color="white" from="E0" to="E0" end="3600.00" vehsPerHour="1800"/>
</routes>
